Version 4
SHEET 1 880 680
WIRE -32 -192 -208 -192
WIRE 240 -192 -32 -192
WIRE 400 -192 240 -192
WIRE 640 -192 496 -192
WIRE -32 -32 -32 -192
WIRE 640 48 640 -192
WIRE -208 96 -208 -192
WIRE 240 96 240 -192
WIRE -32 144 -32 48
WIRE 32 144 -32 144
WIRE 176 144 112 144
WIRE 240 240 240 192
WIRE 448 240 448 -128
WIRE 448 240 240 240
WIRE 240 272 240 240
WIRE -32 288 -32 144
WIRE -208 416 -208 176
WIRE -32 416 -32 352
WIRE -32 416 -208 416
WIRE 240 416 240 352
WIRE 240 416 -32 416
WIRE 640 416 640 128
WIRE 640 416 240 416
WIRE -208 448 -208 416
FLAG -208 448 0
SYMBOL res -48 -48 R0
SYMATTR InstName R1
SYMATTR Value 100k
SYMBOL res 224 256 R0
SYMATTR InstName R2
SYMATTR Value 10k
SYMBOL res 128 128 R90
WINDOW 0 0 56 VBottom 2
WINDOW 3 32 56 VTop 2
SYMATTR InstName R3
SYMATTR Value 10k
SYMBOL res 624 32 R0
SYMATTR InstName R4
SYMATTR Value 500
SYMBOL pnp 496 -128 M270
SYMATTR InstName Q2
SYMATTR Value 2N3906
SYMBOL pnp 176 192 M180
SYMATTR InstName Q3
SYMATTR Value 2N3906
SYMBOL zener -16 352 R180
WINDOW 0 24 64 Left 2
WINDOW 3 24 0 Left 2
SYMATTR InstName D1
SYMATTR Value BZX84C10L
SYMBOL voltage -208 80 R0
WINDOW 123 0 0 Left 2
WINDOW 39 0 0 Left 2
SYMATTR InstName V1
SYMATTR Value SINE(0 35 1)
TEXT -242 472 Left 2 !.tran 1.0
